[General]
network = Network
sim-time-limit = 200s

Network.queue_0.serviceTime = exponential(0.001)
Network.queue_1.serviceTime = exponential(0.001)

Network.nodeTx.gen.packetByteSize = 12500
Network.queue_0.bufferSize = 100
Network.queue_1.bufferSize = 200
Network.nodeRx.TrRx.bufferSize = 200
Network.nodeTx.TrTx.bufferSize = 20000000
cmdenv-interactive=true
